puts " ||||||| ||||||| ||      || ||                 v1.0"
puts " ||      ||      ||      ||                        "
puts " ||      ||      ||      || ||  |||||  ||        ||"
puts " ||||||  ||||||   ||    ||  || ||   || ||        ||"
puts " ||      ||        ||  ||   || ||||||  ||   ||   ||"
puts " ||      ||         ||||    || ||       || |||| || "
puts " ||      |||||||     ||     ||  ||||||   ||   ||   "

# U N I T S
# Length : m
# Force  : kN
# Moment : kNm
# Stress : kPa
# Mass   : ton

# M O D E L  D O M A I N  
model BasicBuilder -ndm 3 -ndf 6

# N O D E S
# node $NodeTag $XCoord $Ycoord $Zcoord
node      1            0            0            0
node      2            0         0.02            0
node      3         0.02            0            0
node      4         0.02         0.02            0
node      5         0.04            0            0
node      6            0         0.04            0
node      7         0.02         0.04            0
node      8         0.04         0.02            0
node      9         0.04         0.04            0
node     10            0         0.06            0
node     11         0.06            0            0
node     12         0.06         0.02            0
node     13         0.02         0.06            0
node     14         0.06         0.04            0
node     15         0.04         0.06            0
node     16            0         0.08            0
node     17         0.08            0            0
node     18         0.08         0.02            0
node     19         0.02         0.08            0
node     20         0.06         0.06            0
# ... 76 like lines cut

# R E S T R A I N T S
# fix $NodeTag x-transl y-transl z-transl x-rot y-rot z-rot
fix      1   1   1   1   1   1   1
fix      2   1   1   1   1   1   1
fix      6   1   1   1   1   1   1
fix     10   1   1   1   1   1   1
fix     16   1   1   1   1   1   1
fix     25   1   1   1   1   1   1

# S H E L L M I T C 4   E L E M E N T S
# Materials/Sections Definition used by shell elements
# (if the have not already been defined on this model domain)
nDMaterial ElasticIsotropic 127 2e+08 0.3         7.85
section PlateFiber 137 127 0.02
# ShellMITC4 Elements Definition: element ShellMITC4 $eleTag $iNode $jNode $kNode $lNode $secTag
element ShellMITC4      1     61    63    62    60    137
element ShellMITC4      2     64    67    63    61    137
element ShellMITC4      3     71    73    67    64    137
element ShellMITC4      4     77    79    73    71    137
element ShellMITC4      5     86    87    79    77    137
element ShellMITC4      6     63    66    65    62    137
element ShellMITC4      7     67    69    66    63    137
element ShellMITC4      8     73    74    69    67    137
element ShellMITC4      9     79    81    74    73    137
element ShellMITC4     10     87    89    81    79    137
element ShellMITC4     11     66    72    70    65    137
element ShellMITC4     12     69    75    72    66    137
element ShellMITC4     13     74    80    75    69    137
element ShellMITC4     14     81    84    80    74    137
element ShellMITC4     15     89    93    84    81    137
element ShellMITC4     16     72    78    76    70    137
element ShellMITC4     17     75    82    78    72    137
element ShellMITC4     18     80    85    82    75    137
element ShellMITC4     19     84    91    85    80    137
element ShellMITC4     20     93    95    91    84    137
# ... 55 like lines cut

# R E C O R D E R S
recorder Node -file Node_displacements.out -time -nodeRange 1 96 -dof 1 2 3 disp
recorder Node -file Node_rotations.out -time -nodeRange 1 96 -dof 4 5 6 disp
recorder Node -file Node_forceReactions.out -time -nodeRange 1 96 -dof 1 2 3 reaction
recorder Node -file Node_momentReactions.out -time -nodeRange 1 96 -dof 4 5 6 reaction

# recording the initial status
record

# Perform eigenvalue analysis

set numModes 3

# Record eigenvectors
for { set k 1 } { $k <= $numModes } { incr k } {
    recorder Node -file [format "Mode_%i.out" $k] -nodeRange 1 96 -dof 1 2 3 "eigen $k"
}

set lambda [eigen -fullGenLapack $numModes]

# Calculate periods
set T {}
foreach lam $lambda {
    lappend T [expr 6.283185/sqrt($lam)]
}

# Write periods file
set period "Periods.out"
set Periods [open $period "w"]
foreach t $T {
    puts $Periods "$t"
}
close $Periods

# Analysis options
system BandGeneral
numberer RCM
constraints Transformation
integrator LoadControl 1
algorithm Linear
analysis Static
analyze 1