puts " ||||||| ||||||| ||      || ||                 v1.0"
puts " ||      ||      ||      ||                        "
puts " ||      ||      ||      || ||  |||||  ||        ||"
puts " ||||||  ||||||   ||    ||  || ||   || ||        ||"
puts " ||      ||        ||  ||   || ||||||  ||   ||   ||"	
puts " ||      ||         ||||    || ||       || |||| || "
puts " ||      |||||||     ||     ||  ||||||   ||   ||   "

# U N I T S
# Length : m
# Force  : kN
# Moment : kNm
# Stress : kPa
# Mass   : ton

# M O D E L  D O M A I N  
model BasicBuilder -ndm 3 -ndf 3

# N O D E S
# node $NodeTag $XCoord $Ycoord $Zcoord
node      1            0          0.5          0.5
node      2            0          0.4          0.5
node      3            0          0.5          0.4
node      4            0          0.4          0.4
node      5            0          0.5          0.3
node      6            0          0.3          0.5
node      7            0          0.4          0.3
node      8            0          0.3          0.4
node      9            0          0.3          0.3
node     10            0          0.5          0.2
node     11            0          0.2          0.5
node     12            0          0.2          0.4
node     13            0          0.4          0.2
node     14            0          0.2          0.3
node     15            0          0.3          0.2
node     16            0          0.1          0.5
node     17            0          0.5          0.1
node     18            0          0.4          0.1
node     19            0          0.1          0.4
node     20            0          0.2          0.2
# ... 376 like lines cut

# R E S T R A I N T S
# fix $NodeTag x-transl y-transl z-transl
fix      1   1   1   1
fix      2   1   1   1
fix      3   1   1   1
fix      4   1   1   1
fix      5   1   1   1
fix      6   1   1   1
fix      7   1   1   1
fix      8   1   1   1
fix      9   1   1   1
fix     10   1   1   1
fix     11   1   1   1
fix     12   1   1   1
fix     13   1   1   1
fix     14   1   1   1
fix     15   1   1   1
fix     16   1   1   1
fix     17   1   1   1
fix     18   1   1   1
fix     19   1   1   1
fix     20   1   1   1
# ... 52 like lines cut

# S T A N D A R D   B R I C K   E L E M E N T S
# nDMaterial Definition used by stdBrick Elements
# (if they have not already been defined on this model domain)
nDMaterial ElasticIsotropic 127 3e+07 0.2            0
# stdBrick element definition: element stdBrick $eleTag $node1 $node2 $node3 $node4 $node5 $node6 $node7 $node8 $matTag <$b1 $b2 $b3>
element stdBrick      1     67     39     51     70     71     50     61     72    127        0        0        0
element stdBrick      2    103     67     70    106    107     71     72    108    127        0        0        0
element stdBrick      3    139    103    106    142    143    107    108    144    127        0        0        0
element stdBrick      4    175    139    142    178    179    143    144    180    127        0        0        0
element stdBrick      5    211    175    178    214    215    179    180    216    127        0        0        0
element stdBrick      6    247    211    214    251    250    215    216    252    127        0        0        0
element stdBrick      7    283    247    251    287    286    250    252    288    127        0        0        0
element stdBrick      8    319    283    287    323    322    286    288    324    127        0        0        0
element stdBrick      9    355    319    323    359    358    322    324    360    127        0        0        0
element stdBrick     10    391    355    359    395    394    358    360    396    127        0        0        0
element stdBrick     11     58     27     39     67     68     42     50     71    127        0        0        0
element stdBrick     12     95     58     67    103    104     68     71    107    127        0        0        0
element stdBrick     13    131     95    103    139    141    104    107    143    127        0        0        0
element stdBrick     14    169    131    139    175    177    141    143    179    127        0        0        0
element stdBrick     15    204    169    175    211    213    177    179    215    127        0        0        0
element stdBrick     16    241    204    211    247    248    213    215    250    127        0        0        0
element stdBrick     17    278    241    247    283    284    248    250    286    127        0        0        0
element stdBrick     18    314    278    283    319    320    284    286    322    127        0        0        0
element stdBrick     19    350    314    319    355    356    320    322    358    127        0        0        0
element stdBrick     20    383    350    355    391    393    356    358    394    127        0        0        0
# ... 230 like lines cut

# R E C O R D E R S
recorder Node -file Node_displacements.out -time -nodeRange 1 396 -dof 1 2 3 disp
recorder Node -file Node_rotations.out -time -nodeRange 1 396 -dof 4 5 6 disp
recorder Node -file Node_forceReactions.out -time -nodeRange 1 396 -dof 1 2 3 reaction
recorder Node -file Node_momentReactions.out -time -nodeRange 1 396 -dof 4 5 6 reaction

# Loads - Plain Pattern
pattern Plain 100 Linear {
load      1        0        0       -5
load      2        0        0       -5
load      6        0        0       -5
load     11        0        0       -5
load     16        0        0       -5
load     24        0        0       -5
load     26        0        0       -5
load     30        0        0       -5
load     36        0        0       -5
load     43        0        0       -5
load     49        0        0       -5
load     59        0        0       -5
load     73        0        0       -5
load     74        0        0       -5
load     78        0        0       -5
load     82        0        0       -5
load     88        0        0       -5
load     96        0        0       -5
load    109        0        0       -5
load    110        0        0       -5
# ... 46 like lines cut
}

# recording the initial status
record

# Analysis options
system BandGeneral
numberer RCM
constraints Transformation
integrator LoadControl 1
algorithm Linear
analysis Static
analyze 1