wipe
# --------------------------------------------------------------------------------------------------------------
#
# M O D E L  D O M A I N  1  (3DOF)
#
# --------------------------------------------------------------------------------------------------------------

model BasicBuilder -ndm 3 -ndf 3

# --------------------------------------------------------------------------------------------------------------
# N O D E S
# --------------------------------------------------------------------------------------------------------------

# node $NodeTag $XCoord $Ycoord $Zcoord

node      1            1            0           10
node      2         0.75            0           10
node      3            1         0.25           10
node      4         0.75         0.25           10
node      5          0.5            0           10
node      6            1          0.5           10
node      7            1            0          9.5
node      8          0.5         0.25           10
node      9            1         0.25          9.5
node     10         0.75            0          9.5
node     11         0.75          0.5           10
node     12         0.75         0.25          9.5
node     13          0.5            0          9.5
node     14            1          0.5          9.5
node     15          0.5          0.5           10
node     16         0.75          0.5          9.5
node     17          0.5         0.25          9.5
node     18            1         0.75           10
node     19         0.25            0           10
node     20         0.25         0.25           10
# ... 505 like lines cut

# --------------------------------------------------------------------------------------------------------------
# R E S T R A I N T S
# --------------------------------------------------------------------------------------------------------------

# fix $NodeTag x-transl y-transl z-transl

fix      1   1   1   1
fix      2   1   1   1
fix      3   1   1   1
fix      4   1   1   1
fix      5   1   1   1
fix      6   1   1   1
fix      8   1   1   1
fix     11   1   1   1
fix     15   1   1   1
fix     18   1   1   1
fix     19   1   1   1
fix     20   1   1   1
fix     21   1   1   1
fix     23   1   1   1
fix     24   1   1   1
fix     30   1   1   1
fix     31   1   1   1
fix     35   1   1   1
fix     37   1   1   1
fix     39   1   1   1
# ... 30 like lines cut

# --------------------------------------------------------------------------------------------------------------
# S T A N D A R D   B R I C K   E L E M E N T S
# --------------------------------------------------------------------------------------------------------------

# nDMaterial Definition used by stdBrick Elements
# (if they have not already been defined on this model domain)

nDMaterial ElasticIsotropic 127 3e+07 0.2            2

# stdBrick element definition: element stdBrick $eleTag $node1 $node2 $node3 $node4 $node5 $node6 $node7 $node8 $matTag <$b1 $b2 $b3>

element stdBrick      1    487    494    518    513    486    492    517    510    127        0        0        0
element stdBrick      2    483    487    513    507    480    486    510    506    127        0        0        0
element stdBrick      3    479    483    507    504    477    480    506    502    127        0        0        0
element stdBrick      4    478    479    504    503    476    477    502    501    127        0        0        0
element stdBrick      5    463    468    494    487    460    467    492    486    127        0        0        0
element stdBrick      6    457    463    487    483    456    460    486    480    127        0        0        0
element stdBrick      7    454    457    483    479    452    456    480    477    127        0        0        0
element stdBrick      8    453    454    479    478    451    452    477    476    127        0        0        0
element stdBrick      9    437    444    468    463    436    442    467    460    127        0        0        0
element stdBrick     10    432    437    463    457    431    436    460    456    127        0        0        0
element stdBrick     11    429    432    457    454    428    431    456    452    127        0        0        0
element stdBrick     12    427    429    454    453    426    428    452    451    127        0        0        0
element stdBrick     13    413    418    444    437    410    417    442    436    127        0        0        0
element stdBrick     14    408    413    437    432    405    410    436    431    127        0        0        0
element stdBrick     15    404    408    432    429    402    405    431    428    127        0        0        0
element stdBrick     16    403    404    429    427    401    402    428    426    127        0        0        0
element stdBrick     17    387    393    418    413    386    391    417    410    127        0        0        0
element stdBrick     18    382    387    413    408    381    386    410    405    127        0        0        0
element stdBrick     19    379    382    408    404    378    381    405    402    127        0        0        0
element stdBrick     20    377    379    404    403    376    378    402    401    127        0        0        0
# ... 300 like lines cut

# --------------------------------------------------------------------------------------------------------------
#
# D O M A I N  C O M M O N S
#
# --------------------------------------------------------------------------------------------------------------

# --------------------------------------------------------------------------------------------------------------
# R E C O R D E R S
# --------------------------------------------------------------------------------------------------------------

recorder Node -file Node_displacements.out -time -nodeRange 1 525 -dof 1 2 3 disp
recorder Node -file Node_rotations.out -time -nodeRange 1 525 -dof 4 5 6 disp
recorder Node -file Node_forceReactions.out -time -nodeRange 1 525 -dof 1 2 3 reaction
recorder Node -file Node_momentReactions.out -time -nodeRange 1 525 -dof 4 5 6 reaction
recorder Element -file stdBrick_force.out -time -eleRange 1 320 forces
recorder Element -file stdBrick_stress.out -time -eleRange 1 320 stresses
recorder Element -file stdBrick_strain.out -time -eleRange 1 320 strains

pattern Plain 100 Linear {
load     43        0     -100        0
load     48        0     -100        0
load     52        0     -100        0
load     63        0     -100        0
load     65        0     -100        0
load     67        0     -100        0
load     71        0     -100        0
load     72        0     -100        0
load     80        0     -100        0
load     88        0     -100        0
load     92        0     -100        0
load     94        0     -100        0
load     97        0     -100        0
load     98        0     -100        0
load    106        0     -100        0
load    117        0     -100        0
load    119        0     -100        0
load    121        0     -100        0
load    123        0     -100        0
load    125        0     -100        0
# ... 75 like lines cut
}

# recording the initial status

record

# Perform eigenvalue analysis

puts "Running eigenvalue analysis\n"

set numModes 5

# Record eigenvectors

for { set k 1 } { $k <= $numModes } { incr k } {
    recorder Node -file [format "Mode_%i.out" $k] -nodeRange 1 525 -dof 1 2 3 "eigen $k"
}

set lambda [eigen -genBandArpack $numModes]

# Calculate periods

set T {}
foreach lam $lambda {
    lappend T [expr 6.283185/sqrt($lam)]
}

# Write periods file

set period "Periods.out"
set Periods [open $period "w"]
foreach t $T {
    puts $Periods "$t"
}
close $Periods

# Analysis options

system BandGeneral
numberer RCM
constraints Transformation
integrator LoadControl 1
algorithm Linear
analysis Static
analyze 1
