#
#   ____ _ ____         ___                   ____                   ___       _             __                
#  / ___(_)  _ \   _   / _ \ _ __   ___ _ __ / ___|  ___  ___  ___  |_ _|_ __ | |_ ___ _ __ / _| __ _  ___ ___ 
# | |  _| | | | |_| |_| | | | '_ \ / _ \ '_ \\___ \ / _ \/ _ \/ __|  | || '_ \| __/ _ \ '__| |_ / _` |/ __/ _ \
# | |_| | | |_| |_   _| |_| | |_) |  __/ | | |___) |  __/  __/\__ \  | || | | | ||  __/ |  |  _| (_| | (_|  __/
#  \____|_|____/  |_|  \___/| .__/ \___|_| |_|____/ \___|\___||___/ |___|_| |_|\__\___|_|  |_|  \__,_|\___\___|
#                           |_|                                                                                
#
# GiD + OpenSees Interface - An Integrated FEA Platform
# Copyright (C) 2016-2018
#
# Lab of R/C and Masonry Structures
# School of Civil Engineering, AUTh
#
# Development team
#
# T. Kartalis-Kaounis, Civil Engineer AUTh
# V. Protopapadakis, Civil Engineer AUTh
# T. Papadopoulos, Civil Engineer AUTh
#
# Project coordinator
#
# V.K. Papanikolaou, Assistant Professor AUTh
#
# This program is free software: you can redistribute it and/or modify
# it under the terms of the GNU General Public License as published by
# the Free Software Foundation, either version 3 of the License, or
# (at your option) any later version.
#
# This program is distributed in the hope that it will be useful,
# but WITHOUT ANY WARRANTY; without even the implied warranty of
# MERCHANTABILITY or FITNESS FOR A PARTICULAR PURPOSE.  See the
# GNU General Public License for more details.
#
# You should have received a copy of the GNU General Public License
# along with this program.  If not, see <http://www.gnu.org/licenses/>.
#

# --------------------------------------------------------------------------------------------------------------
# U N I T S
# --------------------------------------------------------------------------------------------------------------

# Length : m
# Force  : kN
# Moment : kNm
# Stress : kPa
# Mass   : ton

# --------------------------------------------------------------------------------------------------------------
# E L E M E N T S  U S E D
# --------------------------------------------------------------------------------------------------------------

# Concrete (402)
# Soil (176)

# --------------------------------------------------------------------------------------------------------------
#
# M O D E L  D O M A I N  1  (3DOF)
#
# --------------------------------------------------------------------------------------------------------------

model BasicBuilder -ndm 3 -ndf 3

# --------------------------------------------------------------------------------------------------------------
# N O D E S
# --------------------------------------------------------------------------------------------------------------

# node $NodeTag $XCoord $Ycoord $Zcoord

node      1           -5           21           -5
node      2           -5           21         -2.5
node      3         -2.5           21           -5
node      4           -5         18.5           -5
node      5         -2.5           21         -2.5
node      6           -5         18.5         -2.5
node      7         -2.5         18.5           -5
node      8         -2.5         18.5         -2.5
node      9           -5           21            0
node     10           -5           16           -5
node     11            0           21           -5
node     12         -2.5           16           -5
node     13           -5           16         -2.5
node     14         -2.5           21            0
node     15            0           21         -2.5
node     16            0         18.5           -5
node     17           -5         18.5            0
node     18            0         18.5         -2.5
node     19         -2.5           16         -2.5
node     20         -2.5         18.5            0
# ... 1800 like lines cut

# --------------------------------------------------------------------------------------------------------------
# R E S T R A I N T S
# --------------------------------------------------------------------------------------------------------------

# fix $NodeTag x-transl y-transl z-transl

fix      1   0   1   0
fix      2   0   1   0
fix      3   0   1   0
fix      4   1   0   0
fix      5   0   1   0
fix      6   1   0   0
fix      7   0   0   1
fix      9   0   1   0
fix     10   1   0   0
fix     11   0   1   0
fix     12   0   0   1
fix     13   1   0   0
fix     14   0   1   0
fix     15   0   1   0
fix     16   0   0   1
fix     17   1   0   0
fix     21   0   1   0
fix     22   1   0   0
fix     23   1   0   0
fix     24   0   1   0
# ... 164 like lines cut

# --------------------------------------------------------------------------------------------------------------
# S T A N D A R D   B R I C K   E L E M E N T S
# --------------------------------------------------------------------------------------------------------------

# nDMaterial Definition used by stdBrick Elements
# (if they have not already been defined on this model domain)

nDMaterial ElasticIsotropic 154 3.1e+07 0.2            0
nDMaterial ElasticIsotropic 155 170000 0.25            0

# stdBrick element definition: element stdBrick $eleTag $node1 $node2 $node3 $node4 $node5 $node6 $node7 $node8 $matTag <$b1 $b2 $b3>

element stdBrick      1    854    833    810    828    907    890    867    883    154        0        0        0
element stdBrick      2    881    865    833    854    931    918    890    907    154        0        0        0
element stdBrick      3    913    896    865    881    956    942    918    931    154        0        0        0
element stdBrick      4    940    928    896    913    986    974    942    956    154        0        0        0
element stdBrick      5    973    957    928    940   1024   1007    974    986    154        0        0        0
element stdBrick      6    981    968    957    973   1039   1020   1007   1024    154        0        0        0
element stdBrick      7   1168   1127   1096   1137   1236   1200   1164   1207    154        0        0        0
element stdBrick      8   1205   1162   1127   1168   1269   1228   1200   1236    154        0        0        0
element stdBrick      9   1244   1204   1162   1205   1301   1267   1228   1269    154        0        0        0
element stdBrick     10   1283   1246   1204   1244   1334   1303   1267   1301    154        0        0        0
element stdBrick     11   1316   1287   1246   1283   1361   1337   1303   1334    154        0        0        0
element stdBrick     12   1330   1299   1287   1316   1374   1351   1337   1361    154        0        0        0
element stdBrick     13   1006   1067   1039    981    994   1051   1024    973    154        0        0        0
element stdBrick     14   1035   1104   1067   1006   1021   1084   1051    994    154        0        0        0
element stdBrick     15   1071   1142   1104   1035   1052   1126   1084   1021    154        0        0        0
element stdBrick     16   1113   1184   1142   1071   1101   1166   1126   1052    154        0        0        0
element stdBrick     17   1158   1225   1184   1113   1141   1214   1166   1101    154        0        0        0
element stdBrick     18   1209   1273   1225   1158   1191   1260   1214   1141    154        0        0        0
element stdBrick     19   1257   1312   1273   1209   1241   1298   1260   1191    154        0        0        0
element stdBrick     20   1299   1351   1312   1257   1287   1337   1298   1241    154        0        0        0
# ... 558 like lines cut

# --------------------------------------------------------------------------------------------------------------
#
# D O M A I N  C O M M O N S
#
# --------------------------------------------------------------------------------------------------------------

# --------------------------------------------------------------------------------------------------------------
# R E C O R D E R S
# --------------------------------------------------------------------------------------------------------------

recorder Node -file Node_displacements.out -time -nodeRange 1 1820 -dof 1 2 3 disp
recorder Node -file Node_rotations.out -time -nodeRange 1 1820 -dof 4 5 6 disp
recorder Node -file Node_forceReactions.out -time -nodeRange 1 1820 -dof 1 2 3 reaction
recorder Node -file Node_momentReactions.out -time -nodeRange 1 1820 -dof 4 5 6 reaction
recorder Element -file stdBrick_force.out -time -eleRange 1 578 forces
recorder Element -file stdBrick_stress.out -time -eleRange 1 578 stresses
recorder Element -file stdBrick_strain.out -time -eleRange 1 578 strains

logFile "Tutorial - Structure with Foundation on Soil.log"

puts ""
puts " __   __       __          __                   _       "
puts "/ _ .|  \\ _|_ /  \\ _  _ _ (_  _ _ _  | _ |_ _ _(_ _  _ _"
puts "\\__)||__/  |  \\__/|_)(-| )__)(-(-_)  || )|_(-| | (_|(_(-"
puts "                  |                                     "
puts "                                                  v2.6.0"
puts "Analysis summary"
puts ""
puts "Interval 1 : Static - [expr int(1+1)] steps"
puts ""
puts "----------------"
puts ""
set time_start [clock seconds]
puts "Starting analysis at [clock format $time_start -format %H:%M:%S]\n"

# --------------------------------------------------------------------------------------------------------------
#
# I N T E R V A L   1
#
# --------------------------------------------------------------------------------------------------------------

puts "Running interval 1\n"

# Loads - Plain Pattern

pattern Plain 100 Linear {
  load    113       25       15        0
  load    117       25       15        0
  load    118       25       15        0
  load    128       25       15        0
  load    285       25       15        0
  load    285       25       15        0
  load    295       25       15        0
  load    295       25       15        0
  load    296       25       15        0
  load    296       25       15        0
  load    305       25       15        0
  load    309       25       15        0
  load    309       25       15        0
  load    319       25       15        0
  load    333       25       15        0
  load    348       25       15        0
  load    364       25       15        0
  load    375       25       15        0
  load    393       25       15        0
  load    406       25       15        0
# ... 148 like lines cut
}

# recording the initial status

record

# Analysis options

system BandGeneral
numberer RCM
constraints Transformation
integrator LoadControl 1
algorithm Linear
analysis Static
set committedSteps 1
for {set i 1} { $i <= 1 } {incr i 1} {
    set AnalOk [analyze 1]
    if {$AnalOk !=0} {
        break
    } else {
        set committedSteps [expr $committedSteps+1]
    }
}
if {$AnalOk == 0} {
    puts "\nAnalysis completed SUCCESSFULLY"
    puts "Committed steps : $committedSteps\n"
} else {
    puts "\nAnalysis FAILED"
    puts "Committed steps : $committedSteps\n"
}

# --------------------------------------------------------------------------------------------------------------

set hour 0.0
set minute 0.0
set second 0.0
set time_end [clock seconds]
set analysisTime [expr $time_end-$time_start]

puts "Analysis finished at [clock format $time_end -format %H:%M:%S]\n"

if {$analysisTime<60} {
    if {$analysisTime==0} {
        puts "Analysis time : less than one second"
    } elseif {$analysisTime==1} {
        puts "Analysis time : 1 second"
    } else {
        puts "Analysis time : $analysisTime seconds"
    }

}  elseif {$analysisTime<3600} {
    set minutes [expr $analysisTime/60]
    set seconds [expr $analysisTime%60]

    if {$minutes==1} {
        puts -nonewline "Analysis time : 1 minute"
    } else {
        puts -nonewline "Analysis time : $minutes minutes"
    }

    if {$seconds==0} {
        puts ""
    } elseif {$seconds==1} {
        puts " and 1 second"
    } else {
        puts " and $seconds seconds"
    }

} else  {
    set hours [expr $analysisTime/3600]
    set minutes [expr ($analysisTime%3600)/60]
    set seconds [expr ($analysisTime%3600)%60]

    if {$hours==1} {
        puts -nonewline "Analysis time : 1 hour"
    } else {
        puts -nonewline "Analysis time : $hours hours"
    }

    if {$minutes==0} {
    } elseif {$minute==1} {
        puts -nonewline ", 1 minute"
    } else {
        puts -nonewline ", $minutes minutes"
    }

    if {$seconds==0} {
        puts ""
    } elseif {$second==1} {
        puts " and 1 second"
    } else {
        puts " and $seconds seconds"
    }
}

# --------------------------------------------------------------------------------------------------------------
#
# M E T A D A T A
#
# --------------------------------------------------------------------------------------------------------------

# Number of nodes
# 1820

# Elements 1D
# 0

# Elements 2D
# 0

# Elements 3D
# 578

# stdBrick
# 578
# 1 2 3 4 5 6 7 8 9 10 11 12 13 14 15 16 17 18 19 20 21 22 23 24 25 26 27 28 29 30 31 32 33 34 35 36 37 38 39 40 41 42 43 44 45 46 47 48 49 50 51 52 53 54 55 56 57 58 59 60 61 62 63 64 65 66 67 68 69 70 71 72 73 74 75 76 77 78 79 80 81 82 83 84 85 86 87 88 89 90 91 92 93 94 95 96 97 98 99 100 101 102 103 104 105 106 107 108 109 110 111 112 113 114 115 116 117 118 119 120 121 122 123 124 125 126 12
