# --------------------------------------------------------------------------------------------------------------
#
# M O D E L  D O M A I N  1  (6DOF)
#
# --------------------------------------------------------------------------------------------------------------

model BasicBuilder -ndm 3 -ndf 6

# --------------------------------------------------------------------------------------------------------------
# N O D E S
# --------------------------------------------------------------------------------------------------------------

# node $NodeTag $XCoord $Ycoord $Zcoord

node      1            2            0            3
node      2          1.8            0            3
node      3            2          0.2            3
node      4            2            0          2.8
node      5            2          0.2          2.8
node      6          1.8          0.2            3
node      7          1.8            0          2.8
node      8          1.6            0            3
node      9            2            0          2.6
node     10            2          0.4            3
node     11          1.8            0          2.6
node     12            2          0.2          2.6
node     13            2          0.4          2.8
node     14          1.6          0.2            3
node     15          1.6            0          2.8
node     16          1.8          0.4            3
node     17          1.6            0          2.6
node     18            2          0.4          2.6
node     19          1.6          0.4            3
node     20            2          0.6            3
# ... 604 like lines cut

# --------------------------------------------------------------------------------------------------------------
# R E S T R A I N T S
# --------------------------------------------------------------------------------------------------------------

# fix $NodeTag x-transl y-transl z-transl x-rot y-rot z-rot

fix    515   1   1   1   1   1   1
fix    519   1   1   1   1   1   1
fix    520   1   1   1   1   1   1
fix    523   1   1   1   1   1   1
fix    524   1   1   1   1   1   1
fix    534   1   1   1   1   1   1
fix    535   1   1   1   1   1   1
fix    542   1   1   1   1   1   1
fix    543   1   1   1   1   1   1
fix    557   1   1   1   1   1   1
fix    560   1   1   1   1   1   1
fix    562   1   1   1   1   1   1
fix    566   1   1   1   1   1   1
fix    571   1   1   1   1   1   1
fix    574   1   1   1   1   1   1
fix    578   1   1   1   1   1   1
fix    585   1   1   1   1   1   1
fix    588   1   1   1   1   1   1
fix    596   1   1   1   1   1   1
fix    597   1   1   1   1   1   1
# ... 10 like lines cut

# --------------------------------------------------------------------------------------------------------------
# S H E L L M I T C 4   E L E M E N T S
# --------------------------------------------------------------------------------------------------------------

# Materials/Sections Definition used by shell elements

nDMaterial ElasticIsotropic 127 2e+08 0.15         7.85
section PlateFiber 137 127 0.01

# ShellMITC4 Elements Definition: element ShellMITC4 $eleTag $iNode $jNode $kNode $lNode $secTag

element ShellMITC4      1    619   603   602   618    137
element ShellMITC4      2    620   606   603   619    137
element ShellMITC4      3    622   608   606   620    137
element ShellMITC4      4    623   613   608   622    137
element ShellMITC4      5    624   616   613   623    137
element ShellMITC4      6    603   583   580   602    137
element ShellMITC4      7    606   584   583   603    137
element ShellMITC4      8    608   591   584   606    137
element ShellMITC4      9    613   595   591   608    137
element ShellMITC4     10    616   601   595   613    137
element ShellMITC4     11    583   550   548   580    137
element ShellMITC4     12    584   555   550   583    137
element ShellMITC4     13    591   564   555   584    137
element ShellMITC4     14    595   573   564   591    137
element ShellMITC4     15    601   579   573   595    137
element ShellMITC4     16    550   513   510   548    137
element ShellMITC4     17    555   516   513   550    137
element ShellMITC4     18    564   525   516   555    137
element ShellMITC4     19    573   539   525   564    137
element ShellMITC4     20    579   554   539   573    137
# ... 630 like lines cut

# --------------------------------------------------------------------------------------------------------------
#
# D O M A I N  C O M M O N S
#
# --------------------------------------------------------------------------------------------------------------

# --------------------------------------------------------------------------------------------------------------
# R E C O R D E R S
# --------------------------------------------------------------------------------------------------------------

recorder Node -file Node_displacements.out -time -nodeRange 1 624 -dof 1 2 3 disp
recorder Node -file Node_rotations.out -time -nodeRange 1 624 -dof 4 5 6 disp
recorder Node -file Node_forceReactions.out -time -nodeRange 1 624 -dof 1 2 3 reaction
recorder Node -file Node_momentReactions.out -time -nodeRange 1 624 -dof 4 5 6 reaction
recorder Element -file ShellMITC4_force.out -time -ele 1 2 3 4 5 6 7 8 9 10 11 12 13 14 15 16 17 18 19 20 21 22 23 24 25 26 27 28 29 30 31 32 33 34 35 36 37 38 39 40 41 42 43 44 45 46 47 48 49 50 51 52 53 54 55 56 57 58 59 60 61 62 63 64 65 66 67 68 69 70 71 72 73 74 75 76 77 78 79 80 81 82 83 84 85 86 87 88 89 90 91 92 93 94 95 96 97 98 99 100 101 102 103 104 105 106 107 108 109 110 111 112 113 1
recorder Element -file ShellMITC4_stress.out -time -ele 1 2 3 4 5 6 7 8 9 10 11 12 13 14 15 16 17 18 19 20 21 22 23 24 25 26 27 28 29 30 31 32 33 34 35 36 37 38 39 40 41 42 43 44 45 46 47 48 49 50 51 52 53 54 55 56 57 58 59 60 61 62 63 64 65 66 67 68 69 70 71 72 73 74 75 76 77 78 79 80 81 82 83 84 85 86 87 88 89 90 91 92 93 94 95 96 97 98 99 100 101 102 103 104 105 106 107 108 109 110 111 112 113 


pattern Plain 100 Linear {
load    266       10        0        0        0        0        0
load    341       10        0        0        0        0        0
load    344       10        0        0        0        0        0
load    406       10        0        0        0        0        0
load    488       10        0        0        0        0        0
load    517       10        0        0        0        0        0
}

# recording the initial status

record

# Analysis options

system BandGeneral
numberer RCM
constraints Transformation
integrator LoadControl 1
algorithm Linear
analysis Static
analyze 1