puts " ||||||| ||||||| ||      || ||                 v1.0"
puts " ||      ||      ||      ||                        "
puts " ||      ||      ||      || ||  |||||  ||        ||"
puts " ||||||  ||||||   ||    ||  || ||   || ||        ||"
puts " ||      ||        ||  ||   || ||||||  ||   ||   ||"	
puts " ||      ||         ||||    || ||       || |||| || "
puts " ||      |||||||     ||     ||  ||||||   ||   ||   "

# U N I T S
# Length : m
# Force  : kN
# Moment : kNm
# Stress : kPa
# Mass   : ton

# M O D E L  D O M A I N  
model BasicBuilder -ndm 2 -ndf 2

# N O D E S
# node $NodeTag $XCoord $Ycoord
node      1           70            0
node      2         66.5            0
node      3      67.4625        3.325
node      4      63.9966        3.325
node      5           63            0
node      6       64.925         6.65
node      7        60.56        3.325
node      8         59.5            0
node      9      61.5225         6.65
node     10      62.3875        9.975
node     11      57.1495        3.325
node     12      58.1694         6.65
node     13           56            0
node     14      59.0745        9.975
node     15      54.8601         6.65
node     16      53.7617        3.325
node     17        59.85         13.3
node     18      55.8226        9.975
node     19         52.5            0
node     20      56.6492         13.3
# ... 631 like lines cut

# R E S T R A I N T S
# fix $NodeTag x-transl y-transl
fix      1   1   1
fix      2   1   1
fix      5   1   1
fix      8   1   1
fix     13   1   1
fix     19   1   1
fix     25   1   1
fix     32   1   1
fix     41   1   1
fix     53   1   1
fix     64   1   1
fix     77   1   1
fix     91   1   1
fix    109   1   1
fix    127   1   1
fix    148   1   1
fix    168   1   1
fix    195   1   1
fix    219   1   1
fix    247   1   1
fix    277   1   1

# Q U A D   E L E M E N T S
# nDMaterial Definition used by Quad Elements
# (ïnly if they have not already been defined on this model domain)
nDMaterial ElasticIsotropic 127 3.1027e+07 0.15        2.643
# Quad elements Definition : element quad $EleTag $Nodei $Nodej Nodek $Nodel $thick $type $MatTag
element quad      1    247   249   278   277        1  PlaneStrain 127        0        0        0        0
element quad      2    219   220   249   247        1  PlaneStrain 127        0        0        0        0
element quad      3    195   197   220   219        1  PlaneStrain 127        0        0        0        0
element quad      4    168   172   197   195        1  PlaneStrain 127        0        0        0        0
element quad      5    148   152   172   168        1  PlaneStrain 127        0        0        0        0
element quad      6    127   132   152   148        1  PlaneStrain 127        0        0        0        0
element quad      7    109   115   132   127        1  PlaneStrain 127        0        0        0        0
element quad      8     91    98   115   109        1  PlaneStrain 127        0        0        0        0
element quad      9     77    83    98    91        1  PlaneStrain 127        0        0        0        0
element quad     10     64    68    83    77        1  PlaneStrain 127        0        0        0        0
element quad     11     53    57    68    64        1  PlaneStrain 127        0        0        0        0
element quad     12     41    48    57    53        1  PlaneStrain 127        0        0        0        0
element quad     13     32    38    48    41        1  PlaneStrain 127        0        0        0        0
element quad     14     25    30    38    32        1  PlaneStrain 127        0        0        0        0
element quad     15     19    22    30    25        1  PlaneStrain 127        0        0        0        0
element quad     16     13    16    22    19        1  PlaneStrain 127        0        0        0        0
element quad     17      8    11    16    13        1  PlaneStrain 127        0        0        0        0
element quad     18      5     7    11     8        1  PlaneStrain 127        0        0        0        0
element quad     19      2     4     7     5        1  PlaneStrain 127        0        0        0        0
element quad     20      1     3     4     2        1  PlaneStrain 127        0        0        0        0
# ... 580 like lines cut

# --------------------------------------------------------------------------------------------------------------
#
# D O M A I N  C O M M O N S
#
# --------------------------------------------------------------------------------------------------------------

# --------------------------------------------------------------------------------------------------------------
# R E C O R D E R S
# --------------------------------------------------------------------------------------------------------------

recorder Node -file Node_displacements.out -time -nodeRange 1 651 -dof 1 2 disp
recorder Node -file Node_rotations.out -time -nodeRange 1 651 -dof 3 disp
recorder Node -file Node_forceReactions.out -time -nodeRange 1 651 -dof 1 2 reaction
recorder Node -file Node_momentReactions.out -time -nodeRange 1 651 -dof 3 reaction

# recording the initial status
record

# Perform eigenvalue analysis
set numModes 3

# Record eigenvectors
for { set k 1 } { $k <= $numModes } { incr k } {
    recorder Node -file [format "Mode_%i.out" $k] -nodeRange 1 651 -dof 1 2 "eigen $k"
}

set lambda [eigen -fullGenLapack $numModes]

# Calculate periods
set T {}
foreach lam $lambda {
    lappend T [expr 6.283185/sqrt($lam)]
}

# Write periods file
set period "Periods.out"
set Periods [open $period "w"]
foreach t $T {
    puts $Periods "$t"
}
close $Periods

# Analysis options
system BandGeneral
numberer RCM
constraints Transformation
integrator LoadControl 1
algorithm Linear
analysis Static
analyze 1